LAMMPS (17 Nov 2016)
# 3d Lennard-Jones
units		lj
atom_style	atomic
atom_modify	map array
boundary	p p p

lattice		fcc 0.9
Lattice spacing in x,y,z = 1.64414 1.64414 1.64414
region		box block 0 8 0 8 0 8
create_box	1 box
Created orthogonal box = (0 0 0) to (13.1531 13.1531 13.1531)
create_atoms	1 box
Created 2048 atoms
mass		1 1.0

variable Temperature equal 0.5

velocity	all create 0.5 87287 loop geom

pair_style	lj/cut 2.5
pair_coeff	1 1 1.0 1.0 2.5

fix		1 all nvt temp 0.5 0.5 5.

thermo 1000

timestep 0.01

dump MYDUMP all atom 1000 dump.lammpstrj
dump_modify MYDUMP sort id

run		10000
  1 neighbor list requests
  update every 1 steps, delay 10 steps, check yes
Step Temp E_pair E_mol TotEng Press
0          0.5   -7.2202592            0   -6.4706254   -5.3842779
Averages over the last 6 of 11 rows, steps 5000 to 10000:
Temp E_pair E_mol TotEng Press
0.499657 -6.5932 0 -5.84408 -1.72116
Loop time of 5.18653 on 4 procs for 10000 steps with 2048 atoms

dump XYZDUMP all xyz 1 fcc.xyz
dump_modify XYZDUMP sort id
run  0
Step Temp E_pair E_mol TotEng Press
10000   0.51730252   -6.5884645            0   -5.8128896   -1.6737705
Loop time of 1.625e-05 on 4 procs for 0 steps with 2048 atoms
